/*--------------------------------*- C++ -*----------------------------------*\
| =========                 |                                                 |
| \\      /  F ield         | OpenFOAM: The Open Source CFD Toolbox           |
|  \\    /   O peration     | Version:  v2212                                 |
|   \\  /    A nd           | Website:  www.openfoam.com                      |
|    \\/     M anipulation  |                                                 |
\*---------------------------------------------------------------------------*/
FoamFile
{
    version     2.0;
    format      ascii;
    class       dictionary;
    object      decomposeParDict;
}
// * * * * * * * * * * * * * * * * * * * * * * * * * * * * * * * * * * * * * //

numberOfSubdomains 6;

method          hierarchical; //scotch;

simpleCoeffs
{
    n               (6 1 1);
    delta           1e-12;
}

hierarchicalCoeffs
{
    n               (6 1 1);
    delta           1e-12;
    order           xyz;
}

scotch
{
}

manualCoeffs
{
    dataFile        "";
}

distributed     no;

roots           ( );

// ************************************************************************* //
