/*--------------------------------*- C++ -*----------------------------------*\
| =========                 |                                                 |
| \\      /  F ield         | OpenFOAM: The Open Source CFD Toolbox           |
|  \\    /   O peration     | Version:  2.4.0                                 |
|   \\  /    A nd           | Web:      www.OpenFOAM.org                      |
|    \\/     M anipulation  |                                                 |
\*---------------------------------------------------------------------------*/
FoamFile
{
    version     2.0;
    format      ascii;
    class       dictionary;
    location    "constant";
    object      thermophysicalProperties;
}
// * * * * * * * * * * * * * * * * * * * * * * * * * * * * * * * * * * * * * //

LiqPhaseName    Liq;
GasPhaseName    Gas;

pMin            pMin [ 1 -1 -2 0 0 0 0 ] 1e-4;

Liq
{
    //not used in this simulation
    p		p;
    T		T;
    
    Cp          4186;
    Cv		4186;
    mu          0;
    Pr          0.73;
    rho0	997.55;
    p0		0;
    R		6934;
}

Gas
{
    p           p;
    T           T;

    Cp          1004.5;
    Cv          716.7;
    mu          0.0;
    Pr          0.73;
    rho0        0.0;
    p0          0.0;
    R           287.8;
}


// ************************************************************************* //
